---- qbsp / ericw-tools v0.18.1 ----
Input file: ColosseumOfTormiusv02.map
Output file: ColosseumOfTormiusv02.bsp

---- LoadMapFile ----
         1642 faces
          266 brushes
           30 entities
            5 unique texnames
          283 texinfo

Opened WAD: ../wads/prototype_1_3.wad
Processing hull 0...
---- Brush_LoadEntity ----
          262 brushes
          387 planes
---- CSGFaces ----
         1618 brushfaces
         1353 csgfaces
          789 mergedfaces
---- SolidBSP ----
         1334 split nodes
          510 solid leafs
          825 empty leafs
            0 water leafs
            0 detail leafs
            0 detail illusionary leafs
            0 detail fence leafs
            0 illusionary visblocker leafs
         4600 leaffaces
         4007 nodefaces
---- Portalize ----
          825 vis leafs
          825 vis clusters
         2154 vis portals
---- FillOutside ----
          380 outleafs
---- MergeAll ----
          725 mergefaces
---- SolidBSP ----
          592 split nodes
          298 solid leafs
          295 empty leafs
            0 water leafs
            0 detail leafs
            0 detail illusionary leafs
            0 detail fence leafs
            0 illusionary visblocker leafs
         2607 leaffaces
         2123 nodefaces
---- Portalize ----
          295 vis leafs
          295 vis clusters
          790 vis portals
---- Tjunc ----
         1648 world edges
         6982 edge points
         1793 edges added by tjunctions
            0 faces added by tjunctions
---- MakeFaceEdges ----
---- GrowRegions ----
Processing hull 1...
Processing hull 2...
---- WriteBSPFile ----
Wrote ColosseumOfTormiusv02.bsp
          948 planes            18960
         3000 vertexes          36000
          616 nodes             14784
          208 texinfo            8320
         2163 faces             43260
         1770 clipnodes         14160
          320 leafs              8960
         2647 marksurfaces       5294
        10368 surfedges         41472
         5187 edges             20748
            5 textures          27424
              lightdata             0
              visdata               0
              entdata            2122

0.596 seconds elapsed
Peak memory usage: 15151262 (14.4M)
